<?xml version="1.0" encoding="UTF-8"?>

<!-- generated on 2025-03-23 15:33:56 by Eclipse SUMO netedit Version 1.22.0
<neteditConfiguration xmlns:xsi="http://www.w3.org/2001/XMLSchema-instance" xsi:noNamespaceSchemaLocation="http://sumo.dlr.de/xsd/neteditConfiguration.xsd">

    <input>
        <sumo-net-file value="/home/ali/Documents/PyVenv/MY_Grad_Proj/Intersection/Enviroment .net.xml"/>
    </input>

    <output>
        <output-file value="/home/ali/Documents/PyVenv/MY_Grad_Proj/Intersection/Enviroment .net.xml"/>
    </output>

    <processing>
        <geometry.min-radius.fix.railways value="false"/>
        <geometry.max-grade.fix value="false"/>
        <offset.disable-normalization value="true"/>
        <lefthand value="0"/>
    </processing>

    <junctions>
        <no-turnarounds value="true"/>
        <junctions.corner-detail value="5"/>
        <junctions.limit-turn-speed value="5.50"/>
        <rectangular-lane-cut value="0"/>
    </junctions>

    <pedestrian>
        <walkingareas value="0"/>
    </pedestrian>

</neteditConfiguration>
-->

<net version="1.20" junctionCornerDetail="5" limitTurnSpeed="5.50" xmlns:xsi="http://www.w3.org/2001/XMLSchema-instance" xsi:noNamespaceSchemaLocation="http://sumo.dlr.de/xsd/net_file.xsd">

    <location netOffset="0.00,0.00" convBoundary="-750.00,-750.00,750.00,750.00" origBoundary="-10000000000.00,-10000000000.00,10000000000.00,10000000000.00" projParameter="!"/>

    <edge id=":TL_0" function="internal">
        <lane id=":TL_0_0" index="0" speed="13.89" length="27.20" shape="-8.00,13.60 -8.00,-13.60"/>
        <lane id=":TL_0_1" index="1" speed="13.89" length="27.20" shape="-4.80,13.60 -4.80,-13.60"/>
    </edge>
    <edge id=":TL_2" function="internal">
        <lane id=":TL_2_0" index="0" speed="10.36" length="24.51" shape="-1.60,13.60 -0.65,6.95 2.20,2.20 6.95,-0.65 13.60,-1.60"/>
    </edge>
    <edge id=":TL_3" function="internal">
        <lane id=":TL_3_0" index="0" speed="13.89" length="27.20" shape="13.60,8.00 -13.60,8.00"/>
        <lane id=":TL_3_1" index="1" speed="13.89" length="27.20" shape="13.60,4.80 -13.60,4.80"/>
    </edge>
    <edge id=":TL_5" function="internal">
        <lane id=":TL_5_0" index="0" speed="10.36" length="24.51" shape="13.60,1.60 6.95,0.65 2.20,-2.20 -0.65,-6.95 -1.60,-13.60"/>
    </edge>
    <edge id=":TL_6" function="internal">
        <lane id=":TL_6_0" index="0" speed="13.89" length="27.20" shape="8.00,-13.60 8.00,13.60"/>
        <lane id=":TL_6_1" index="1" speed="13.89" length="27.20" shape="4.80,-13.60 4.80,13.60"/>
    </edge>
    <edge id=":TL_8" function="internal">
        <lane id=":TL_8_0" index="0" speed="10.36" length="24.51" shape="1.60,-13.60 0.65,-6.95 -2.20,-2.20 -6.95,0.65 -13.60,1.60"/>
    </edge>
    <edge id=":TL_9" function="internal">
        <lane id=":TL_9_0" index="0" speed="13.89" length="27.20" shape="-13.60,-8.00 13.60,-8.00"/>
        <lane id=":TL_9_1" index="1" speed="13.89" length="27.20" shape="-13.60,-4.80 13.60,-4.80"/>
    </edge>
    <edge id=":TL_11" function="internal">
        <lane id=":TL_11_0" index="0" speed="10.36" length="24.51" shape="-13.60,-1.60 -6.95,-0.65 -2.20,2.20 0.65,6.95 1.60,13.60"/>
    </edge>

    <edge id="E2TL" from="DE" to="TL" priority="-1" length="750.00">
        <lane id="E2TL_0" index="0" speed="13.89" length="750.00" shape="750.00,8.00 13.60,8.00"/>
        <lane id="E2TL_1" index="1" speed="13.89" length="750.00" shape="750.00,4.80 13.60,4.80"/>
        <lane id="E2TL_2" index="2" speed="13.89" length="750.00" shape="750.00,1.60 13.60,1.60"/>
    </edge>
    <edge id="N2TL" from="DN" to="TL" priority="-1" length="750.00">
        <lane id="N2TL_0" index="0" speed="13.89" length="750.00" shape="-8.00,750.00 -8.00,13.60"/>
        <lane id="N2TL_1" index="1" speed="13.89" length="750.00" shape="-4.80,750.00 -4.80,13.60"/>
        <lane id="N2TL_2" index="2" speed="13.89" length="750.00" shape="-1.60,750.00 -1.60,13.60"/>
    </edge>
    <edge id="S2TL" from="DS" to="TL" priority="-1" length="750.00">
        <lane id="S2TL_0" index="0" speed="13.89" length="750.00" shape="8.00,-750.00 8.00,-13.60"/>
        <lane id="S2TL_1" index="1" speed="13.89" length="750.00" shape="4.80,-750.00 4.80,-13.60"/>
        <lane id="S2TL_2" index="2" speed="13.89" length="750.00" shape="1.60,-750.00 1.60,-13.60"/>
    </edge>
    <edge id="TL2E" from="TL" to="DE" priority="-1" length="750.00">
        <lane id="TL2E_0" index="0" speed="13.89" length="750.00" shape="13.60,-8.00 750.00,-8.00"/>
        <lane id="TL2E_1" index="1" speed="13.89" length="750.00" shape="13.60,-4.80 750.00,-4.80"/>
        <lane id="TL2E_2" index="2" speed="13.89" length="750.00" shape="13.60,-1.60 750.00,-1.60"/>
    </edge>
    <edge id="TL2N" from="TL" to="DN" priority="-1" length="750.00">
        <lane id="TL2N_0" index="0" speed="13.89" length="750.00" shape="8.00,13.60 8.00,750.00"/>
        <lane id="TL2N_1" index="1" speed="13.89" length="750.00" shape="4.80,13.60 4.80,750.00"/>
        <lane id="TL2N_2" index="2" speed="13.89" length="750.00" shape="1.60,13.60 1.60,750.00"/>
    </edge>
    <edge id="TL2S" from="TL" to="DS" priority="-1" length="750.00">
        <lane id="TL2S_0" index="0" speed="13.89" length="750.00" shape="-8.00,-13.60 -8.00,-750.00"/>
        <lane id="TL2S_1" index="1" speed="13.89" length="750.00" shape="-4.80,-13.60 -4.80,-750.00"/>
        <lane id="TL2S_2" index="2" speed="13.89" length="750.00" shape="-1.60,-13.60 -1.60,-750.00"/>
    </edge>
    <edge id="TL2W" from="TL" to="DW" priority="-1" length="750.00">
        <lane id="TL2W_0" index="0" speed="13.89" length="750.00" shape="-13.60,8.00 -750.00,8.00"/>
        <lane id="TL2W_1" index="1" speed="13.89" length="750.00" shape="-13.60,4.80 -750.00,4.80"/>
        <lane id="TL2W_2" index="2" speed="13.89" length="750.00" shape="-13.60,1.60 -750.00,1.60"/>
    </edge>
    <edge id="W2TL" from="DW" to="TL" priority="-1" length="750.00">
        <lane id="W2TL_0" index="0" speed="13.89" length="750.00" shape="-750.00,-8.00 -13.60,-8.00"/>
        <lane id="W2TL_1" index="1" speed="13.89" length="750.00" shape="-750.00,-4.80 -13.60,-4.80"/>
        <lane id="W2TL_2" index="2" speed="13.89" length="750.00" shape="-750.00,-1.60 -13.60,-1.60"/>
    </edge>

    <tlLogic id="TL" type="static" programID="0" offset="0">
        <phase duration="33" state="GGrrrrGGrrrrr"/>
        <phase duration="3"  state="yyrrrryyrrrrr"/>
        <phase duration="6"  state="rrGrrrrrGrrrr"/>
        <phase duration="3"  state="rryrrrrryrrrr"/>
        <phase duration="33" state="rrrGGrrrrGGgr"/>
        <phase duration="3"  state="rrryyrrrryygr"/>
        <phase duration="6"  state="rrrrrGrrrrrGG"/>
        <phase duration="3"  state="rrrrryrrrrryy"/>
    </tlLogic>

    <junction id="DE" type="dead_end" x="750.00" y="0.00" incLanes="TL2E_0 TL2E_1 TL2E_2" intLanes="" shape="750.00,0.00 750.00,-9.60 750.00,0.00"/>
    <junction id="DN" type="dead_end" x="0.00" y="750.00" incLanes="TL2N_0 TL2N_1 TL2N_2" intLanes="" shape="0.00,750.00 9.60,750.00 0.00,750.00"/>
    <junction id="DS" type="dead_end" x="0.00" y="-750.00" incLanes="TL2S_0 TL2S_1 TL2S_2" intLanes="" shape="0.00,-750.00 -9.60,-750.00 0.00,-750.00"/>
    <junction id="DW" type="dead_end" x="-750.00" y="0.00" incLanes="TL2W_0 TL2W_1 TL2W_2" intLanes="" shape="-750.00,0.00 -750.00,9.60 -750.00,0.00"/>
    <junction id="TL" type="traffic_light" x="0.00" y="0.00" incLanes="N2TL_0 N2TL_1 N2TL_2 E2TL_0 E2TL_1 E2TL_2 S2TL_0 S2TL_1 S2TL_2 W2TL_0 W2TL_1 W2TL_2" intLanes=":TL_0_0 :TL_0_1 :TL_2_0 :TL_3_0 :TL_3_1 :TL_5_0 :TL_6_0 :TL_6_1 :TL_8_0 :TL_9_0 :TL_9_1 :TL_11_0" shape="-9.60,13.60 9.60,13.60 10.04,11.38 10.60,10.60 11.38,10.04 12.38,9.71 13.60,9.60 13.60,-9.60 11.38,-10.04 10.60,-10.60 10.04,-11.38 9.71,-12.38 9.60,-13.60 -9.60,-13.60 -10.04,-11.38 -10.60,-10.60 -11.38,-10.04 -12.38,-9.71 -13.60,-9.60 -13.60,9.60 -11.38,10.04 -10.60,10.60 -10.04,11.38 -9.71,12.38">
        <request index="0"  response="000000000000" foes="111100011000" cont="0"/>
        <request index="1"  response="000000000000" foes="111100011000" cont="0"/>
        <request index="2"  response="000011000000" foes="100011111000" cont="0"/>
        <request index="3"  response="000011000111" foes="100011000111" cont="0"/>
        <request index="4"  response="000011000111" foes="100011000111" cont="0"/>
        <request index="5"  response="011111000100" foes="011111000100" cont="0"/>
        <request index="6"  response="000000000000" foes="011000111100" cont="0"/>
        <request index="7"  response="000000000000" foes="011000111100" cont="0"/>
        <request index="8"  response="000000000011" foes="111000100011" cont="0"/>
        <request index="9"  response="000111000011" foes="000111100011" cont="0"/>
        <request index="10" response="000111000011" foes="000111100011" cont="0"/>
        <request index="11" response="000100011111" foes="000100011111" cont="0"/>
    </junction>

    <connection from="E2TL" to="TL2W" fromLane="0" toLane="0" via=":TL_3_0" tl="TL" linkIndex="3" dir="s" state="o"/>
    <connection from="E2TL" to="TL2W" fromLane="1" toLane="1" via=":TL_3_1" tl="TL" linkIndex="4" dir="s" state="o"/>
    <connection from="E2TL" to="TL2S" fromLane="2" toLane="2" via=":TL_5_0" tl="TL" linkIndex="5" dir="l" state="o"/>
    <connection from="N2TL" to="TL2S" fromLane="0" toLane="0" via=":TL_0_0" tl="TL" linkIndex="0" dir="s" state="O"/>
    <connection from="N2TL" to="TL2S" fromLane="1" toLane="1" via=":TL_0_1" tl="TL" linkIndex="1" dir="s" state="O"/>
    <connection from="N2TL" to="TL2E" fromLane="2" toLane="2" via=":TL_2_0" tl="TL" linkIndex="2" dir="l" state="o"/>
    <connection from="S2TL" to="TL2N" fromLane="0" toLane="0" via=":TL_6_0" tl="TL" linkIndex="6" dir="s" state="O"/>
    <connection from="S2TL" to="TL2N" fromLane="1" toLane="1" via=":TL_6_1" tl="TL" linkIndex="7" dir="s" state="O"/>
    <connection from="S2TL" to="TL2W" fromLane="2" toLane="2" via=":TL_8_0" tl="TL" linkIndex="8" dir="l" state="o"/>
    <connection from="W2TL" to="TL2E" fromLane="0" toLane="0" via=":TL_9_0" tl="TL" linkIndex="9" dir="s" state="o"/>
    <connection from="W2TL" to="TL2E" fromLane="1" toLane="1" via=":TL_9_1" tl="TL" linkIndex="10" dir="s" state="o"/>
    <connection from="W2TL" to="TL2N" fromLane="2" toLane="2" via=":TL_11_0" tl="TL" linkIndex="12" dir="l" state="o"/>

    <connection from=":TL_0" to="TL2S" fromLane="0" toLane="0" dir="s" state="M"/>
    <connection from=":TL_0" to="TL2S" fromLane="1" toLane="1" dir="s" state="M"/>
    <connection from=":TL_2" to="TL2E" fromLane="0" toLane="2" dir="l" state="M"/>
    <connection from=":TL_3" to="TL2W" fromLane="0" toLane="0" dir="s" state="M"/>
    <connection from=":TL_3" to="TL2W" fromLane="1" toLane="1" dir="s" state="M"/>
    <connection from=":TL_5" to="TL2S" fromLane="0" toLane="2" dir="l" state="M"/>
    <connection from=":TL_6" to="TL2N" fromLane="0" toLane="0" dir="s" state="M"/>
    <connection from=":TL_6" to="TL2N" fromLane="1" toLane="1" dir="s" state="M"/>
    <connection from=":TL_8" to="TL2W" fromLane="0" toLane="2" dir="l" state="M"/>
    <connection from=":TL_9" to="TL2E" fromLane="0" toLane="0" dir="s" state="M"/>
    <connection from=":TL_9" to="TL2E" fromLane="1" toLane="1" dir="s" state="M"/>
    <connection from=":TL_11" to="TL2N" fromLane="0" toLane="2" dir="l" state="M"/>

</net>
